10
-155.916551 ddt bullvalene cope trial21 runpoint 1  runisomer  1
C 1.0972807 -0.6506271 -0.1314880
C -1.0705420 -0.6181243 0.1111652
C -0.7012745 0.7219642 -0.0685505
C 0.6796875 0.7787105 0.0825255
H 1.8513688 -1.2683304 0.4583198
H 0.9705907 -1.1239304 -1.1405346
H -0.9075002 -0.8799408 1.0524806
H -1.9405586 -1.1107975 -0.3417052
H -1.3810325 1.4243890 -0.4533041
H 1.3456920 1.4664188 0.4995404
10
-155.892437705 ddt bullvalene cope trial21 runpoint 2  runisomer  1
C 1.10265 -0.670496 -0.13935
C -1.06384 -0.609 0.114626
C -0.706891 0.723299 -0.0731961
C 0.67762 0.784964 0.0884599
H 1.85088 -1.24917 0.499433
H 0.984037 -1.10398 -1.17696
H -0.883317 -0.923801 1.15061
H -1.96813 -1.13246 -0.395163
H -1.43751 1.48094 -0.476895
H 1.34043 1.47385 0.510833
10
-155.895601384     ddt     bullvalene     cope     trial21     runpoint      3     runisomer      1
C 1.1071141 -0.6894724 -0.1471962
C -1.0578723 -0.6016781 0.1183723
C -0.7121855 0.7263842 -0.0789284
C 0.6750416 0.7879646 0.0937494
H 1.8430323 -1.2208488 0.5333223
H 0.9975564 -1.0780481 -1.2006454
H -0.8608989 -0.9726585 1.2433327
H -1.9814057 -1.1458337 -0.4414897
H -1.4849646 1.5335360 -0.4947743
H 1.3425583 1.4955019 0.5262116
10
-155.879013847     ddt     bullvalene     cope     trial21     runpoint      4     runisomer      1
C 1.1103473 -0.7067218 -0.1547936
C -1.0528020 -0.5973230 0.1235835
C -0.7174734 0.7320685 -0.0858658
C 0.6722136 0.7880306 0.0984262
H 1.8285502 -1.1868307 0.5582073
H 1.0122662 -1.0484417 -1.2108690
H -0.8454904 -1.0177792 1.3085852
H -1.9743916 -1.1479451 -0.4748824
H -1.5147390 1.5718725 -0.5022216
H 1.3474567 1.5258234 0.5424731
10
-155.861689007     ddt     bullvalene     cope     trial21     runpoint      5     runisomer      1
C 1.1119739 -0.7214125 -0.1617933
C -1.0486229 -0.5963790 0.1304837
C -0.7227206 0.7405809 -0.0938744
C 0.6694745 0.7857508 0.1026413
H 1.8097934 -1.1513367 0.5741481
H 1.0287413 -1.0182100 -1.2102181
H -0.8393151 -1.0543348 1.3380727
H -1.9455719 -1.1384423 -0.4922650
H -1.5232743 1.5911618 -0.4974411
H 1.3492632 1.5573275 0.5553487
10
-155.853907669     ddt     bullvalene     cope     trial21     runpoint      6     runisomer      1
C 1.1115911 -0.7327764 -0.1677398
C -1.0451264 -0.5987882 0.1389432
C -0.7277008 0.7516906 -0.1026560
C 0.6670082 0.7817283 0.1065111
H 1.7903523 -1.1188367 0.5829370
H 1.0471352 -0.9906813 -1.2043217
H -0.8430286 -1.0794891 1.3296103
H -1.8966771 -1.1190117 -0.4928960
H -1.5101919 1.5902289 -0.4804269
H 1.3436527 1.5835496 0.5613261
10
-155.857923350     ddt     bullvalene     cope     trial21     runpoint      7     runisomer      1
C 1.1088054 -0.7402028 -0.1721427
C -1.0418591 -0.6040934 0.1487724
C -0.7319881 0.7647699 -0.1117709
C 0.6647673 0.7764639 0.1100561
H 1.7742603 -1.0933827 0.5874441
H 1.0674114 -0.9688156 -1.2004645
H -0.8563014 -1.0915022 1.2842275
H -1.8329048 -1.0935688 -0.4789216
H -1.4780403 1.5712705 -0.4527209
H 1.3288258 1.6003051 0.5583734
10
-155.870037385     ddt     bullvalene     cope     trial21     runpoint      8     runisomer      1
C 1.1033029 -0.7433484 -0.1746199
C -1.0380438 -0.6114136 0.1598085
C -0.7348333 0.7787158 -0.1205973
C 0.6625019 0.7703257 0.1131909
H 1.7647838 -1.0779082 0.5903375
H 1.0896058 -0.9544608 -1.2045727
H -0.8777285 -1.0900108 1.2068785
H -1.7641807 -1.0690082 -0.4569873
H -1.4337264 1.5414177 -0.4178767
H 1.3054396 1.6059323 0.5460026
10
-155.879934599     ddt     bullvalene     cope     trial21     runpoint      9     runisomer      1
C 1.0949356 -0.7421982 -0.1750670
C -1.0326009 -0.6193200 0.1716651
C -0.7349809 0.7917914 -0.1282979
C 0.6598160 0.7635276 0.1157337
H 1.7632051 -1.0737175 0.5926750
H 1.1138451 -0.9478623 -1.2178544
H -0.9041917 -1.0780678 1.1109696
H -1.7055349 -1.0553645 -0.4395661
H -1.3908777 1.5153585 -0.3820331
H 1.2763211 1.6013297 0.5251705
10
-155.874825964     ddt     bullvalene     cope     trial21     runpoint      10     runisomer      1
C 1.0837776 -0.7370640 -0.1736789
C -1.0246649 -0.6257737 0.1826884
C -0.7308331 0.8017952 -0.1339676
C 0.6562454 0.7561157 0.1174235
H 1.7682721 -1.0803716 0.5933238
H 1.1399561 -0.9477907 -1.2359942
H -0.9301131 -1.0668761 1.0270356
H -1.6716028 -1.0623261 -0.4410542
H -1.3683953 1.5138892 -0.3524510
H 1.2461544 1.5900134 0.4981206
10
-155.858325908     ddt     bullvalene     cope     trial21     runpoint      11     runisomer      1
C 1.0701106 -0.7285085 -0.1707976
C -1.0144157 -0.6286436 0.1890251
C -0.7216604 0.8073816 -0.1371372
C 0.6513905 0.7479983 0.1179694
H 1.7766696 -1.0959686 0.5897040
H 1.1670528 -0.9521434 -1.2517682
H -0.9492939 -1.0778656 1.0025555
H -1.6649273 -1.0916244 -0.4660816
H -1.3767969 1.5488420 -0.3319061
H 1.2208626 1.5777395 0.4679612
10
-155.862377775     ddt     bullvalene     cope     trial21     runpoint      12     runisomer      1
C 1.0543413 -0.7172594 -0.1667608
C -1.0026707 -0.6277912 0.1882261
C -0.7087102 0.8093195 -0.1380496
C 0.6451107 0.7390969 0.1171472
H 1.7841417 -1.1176731 0.5792379
H 1.1935164 -0.9585574 -1.2584765
H -0.9616155 -1.1200467 1.0554550
H -1.6743563 -1.1353921 -0.5053103
H -1.4057361 1.6086776 -0.3160532
H 1.2061473 1.5707809 0.4376987
10
-155.888757270     ddt     bullvalene     cope     trial21     runpoint      13     runisomer      1
C 1.0368975 -0.7041381 -0.1618433
C -0.9900732 -0.6259630 0.1823962
C -0.6941905 0.8093782 -0.1371921
C 0.6377068 0.7296233 0.1149259
H 1.7866050 -1.1422910 0.5605767
H 1.2173042 -0.9648193 -1.2520171
H -0.9718455 -1.1723704 1.1466526
H -1.6860035 -1.1829830 -0.5451984
H -1.4362070 1.6716760 -0.2993368
H 1.2052430 1.5727043 0.4089522
10
-155.896112308     ddt     bullvalene     cope     trial21     runpoint      14     runisomer      1
C 1.0181524 -0.6900264 -0.1562453
C -0.9770914 -0.6257980 0.1740796
C -0.6800833 0.8089483 -0.1349254
C 0.6299942 0.7202645 0.1115127
H 1.7809126 -1.1668006 0.5341801
H 1.2363417 -0.9691029 -1.2315545
H -0.9826410 -1.2133988 1.2360139
H -1.6900259 -1.2259021 -0.5755120
H -1.4543928 1.7216770 -0.2788403
H 1.2174148 1.5820089 0.3813555
10
-155.885437874     ddt     bullvalene     cope     trial21     runpoint      15     runisomer      1
C 0.9983686 -0.6758239 -0.1500846
C -0.9639758 -0.6286720 0.1645780
C -0.6679322 0.8088401 -0.1314788
C 0.6231431 0.7120804 0.1072680
H 1.7653206 -1.1887983 0.5023676
H 1.2488942 -0.9701497 -1.1995209
H -0.9945188 -1.2333178 1.3031692
H -1.6811377 -1.2587667 -0.5905976
H -1.4533259 1.7501777 -0.2538340
H 1.2386974 1.5932053 0.3533627
10
-155.874480472     ddt     bullvalene     cope     trial21     runpoint      16     runisomer      1
C 0.9776743 -0.6624007 -0.1433865
C -0.9507703 -0.6351008 0.1544988
C -0.6589011 0.8094781 -0.1269997
C 0.6183618 0.7062015 0.1025631
H 1.7397287 -1.2068634 0.4690681
H 1.2539089 -0.9674315 -1.1613414
H -1.0071584 -1.2293614 1.3398148
H -1.6573295 -1.2788096 -0.5884371
H -1.4307065 1.7538603 -0.2247282
H 1.2640868 1.6000763 0.3235095
10
-155.872920211     ddt     bullvalene     cope     trial21     runpoint      17     runisomer      1
C 0.9560289 -0.6505329 -0.1360922
C -0.9373421 -0.6450965 0.1442685
C -0.6537015 0.8110030 -0.1215613
C 0.6165861 0.7036059 0.0976833
H 1.7056868 -1.2208132 0.4393227
H 1.2512629 -0.9612258 -1.1246987
H -1.0199214 -1.2018060 1.3429299
H -1.6190488 -1.2855467 -0.5699380
H -1.3876870 1.7331542 -0.1925252
H 1.2893497 1.5981684 0.2910878
10
-155.882812217     ddt     bullvalene     cope     trial21     runpoint      18     runisomer      1
C 0.9332487 -0.6408640 -0.1281294
C -0.9233645 -0.6582579 0.1343777
C -0.6523936 0.8131887 -0.1151579
C 0.6182746 0.7049960 0.0927864
H 1.6660444 -1.2316959 0.4184969
H 1.2416943 -0.9524033 -1.0978049
H -1.0320154 -1.1524413 1.3121403
H -1.5693875 -1.2811869 -0.5391888
H -1.3293974 1.6929471 -0.1586381
H 1.3118651 1.5857081 0.2562016
10
-155.899703512     ddt     bullvalene     cope     trial21     runpoint      19     runisomer      1
C 0.9090968 -0.6339158 -0.1195496
C -0.9082225 -0.6736739 0.1254680
C -0.6541288 0.8151745 -0.1077261
C 0.6233365 0.7107341 0.0879021
H 1.6241244 -1.2413358 0.4111609
H 1.2262492 -0.9418285 -1.0865684
H -1.0426246 -1.0845278 1.2499373
H -1.5151463 -1.2718102 -0.5045894
H -1.2670515 1.6455529 -0.1247344
H 1.3309472 1.5637357 0.2196025
10
-155.912948127     ddt     bullvalene     cope     trial21     runpoint      20     runisomer      1
C 0.8834355 -0.6301253 -0.1106358
C -0.8909375 -0.6897990 0.1181399
C -0.6570791 0.8152302 -0.0992212
C 0.6311827 0.7207598 0.0829607
H 1.5825488 -1.2513994 0.4198816
H 1.2055280 -0.9297584 -1.0919637
H -1.0513689 -1.0037216 1.1646694
H -1.4674409 -1.2681202 -0.4794063
H -1.2193547 1.6135452 -0.0921604
H 1.3480546 1.5360698 0.1824750
10
-155.915566093     ddt     bullvalene     cope     trial21     runpoint      21     runisomer      1
C 0.8563404 -0.6298344 -0.1018466
C -0.8703898 -0.7046914 0.1120561
C -0.6592281 0.8115305 -0.0897476
C 0.6408989 0.7345348 0.0778458
H 1.5422725 -1.2624066 0.4444269
H 1.1794448 -0.9159068 -1.1096703
H -1.0597671 -0.9193175 1.0769756
H -1.4379297 -1.2818059 -0.4774778
H -1.2049609 1.6209944 -0.0609987
H 1.3668026 1.5089587 0.1461409
10
-155.916909687     ddt     bullvalene     cope     trial21     runpoint      22     runisomer      1
C 0.8281081 -0.6332120 -0.0936329
C -0.8459366 -0.7170059 0.1046754
C -0.6600430 0.8043718 -0.0795396
C 0.6514937 0.7511211 0.0724568
H 1.5024694 -1.2734008 0.4818459
H 1.1477059 -0.9001798 -1.1322656
H -1.0738926 -0.8428890 1.0241530
H -1.4292956 -1.3158181 -0.5025410
H -1.2246061 1.6678220 -0.0307584
H 1.3920534 1.4896101 0.1116561
10
-155.924532302     ddt     bullvalene     cope     trial21     runpoint      23     runisomer      1
C 0.7992163 -0.6401587 -0.0862888
C -0.8179207 -0.7269631 0.0930087
C -0.6604138 0.7962272 -0.0688075
C 0.6621544 0.7694768 0.0667476
H 1.4613115 -1.2825056 0.5273792
H 1.1104518 -0.8832779 -1.1521065
H -1.1018807 -0.7804275 1.0359175
H -1.4325119 -1.3610883 -0.5447663
H -1.2623334 1.7290226 -0.0022077
H 1.4273268 1.4831302 0.0795173
10
-155.938678531     ddt     bullvalene     cope     trial21     runpoint      24     runisomer      1
C 0.7703000 -0.6502746 -0.0799400
C -0.7880854 -0.7357114 0.0778540
C -0.6611605 0.7895131 -0.0577420
C 0.6724500 0.7887917 0.0607149
H 1.4170310 -1.2878978 0.5756757
H 1.0686120 -0.8667730 -1.1632946
H -1.1411385 -0.7307180 1.0936724
H -1.4355796 -1.4051851 -0.5904378
H -1.3029067 1.7803563 0.0232153
H 1.4717039 1.4896618 0.0498175
10
-155.941319191     ddt     bullvalene     cope     trial21     runpoint      25     runisomer      1
C 0.7421700 -0.6629140 -0.0745721
C -0.7588997 -0.7439344 0.0619475
C -0.6625626 0.7856722 -0.0465190
C 0.6823332 0.8085566 0.0543636
H 1.3687256 -1.2885549 0.6218371
H 1.0239577 -0.8528573 -1.1626093
H -1.1805340 -0.6941782 1.1590581
H -1.4297949 -1.4389065 -0.6292954
H -1.3376137 1.8080578 0.0444401
H 1.5194356 1.5047048 0.0226842
10
-155.926460045     ddt     bullvalene     cope     trial21     runpoint      26     runisomer      1
C 0.7158140 -0.6772789 -0.0700428
C -0.7325830 -0.7517365 0.0471167
C -0.6645388 0.7853430 -0.0352822
C 0.6918933 0.8283937 0.0476937
H 1.3167844 -1.2845956 0.6621021
H 0.9790456 -0.8440236 -1.1498701
H -1.2113370 -0.6727188 1.2082468
H -1.4105469 -1.4572144 -0.6554686
H -1.3624399 1.8063085 0.0609010
H 1.5628276 1.5222053 -0.0015014
10
-155.907112075     ddt     bullvalene     cope     trial21     runpoint      27     runisomer      1
C 0.6923625 -0.6925049 -0.0660848
C -0.7109898 -0.7589267 0.0342498
C -0.6668231 0.7886347 -0.0241525
C 0.7011251 0.8478945 0.0407052
H 1.2629805 -1.2773188 0.6942730
H 0.9371466 -0.8427707 -1.1280521
H -1.2290839 -0.6674981 1.2312827
H -1.3765627 -1.4583591 -0.6665245
H -1.3761153 1.7741578 0.0724215
H 1.5953616 1.5372888 -0.0222056
10
-155.916551 ddt bullvalene cope trial21 runpoint 1  runisomer  1
C 1.0972807 -0.6506271 -0.1314880
C -1.0705420 -0.6181243 0.1111652
C -0.7012745 0.7219642 -0.0685505
C 0.6796875 0.7787105 0.0825255
H 1.8513688 -1.2683304 0.4583198
H 0.9705907 -1.1239304 -1.1405346
H -0.9075002 -0.8799408 1.0524806
H -1.9405586 -1.1107975 -0.3417052
H -1.3810325 1.4243890 -0.4533041
H 1.3456920 1.4664188 0.4995404
10
-155.892437705 ddt bullvalene cope trial21 runpoint 2  runisomer  1
C 1.09129 -0.630632 -0.123727
C -1.07755 -0.627021 0.105238
C -0.69448 0.720766 -0.0644931
C 0.68134 0.769443 0.0761805
H 1.84551 -1.27606 0.413397
H 0.955505 -1.13677 -1.09519
H -0.923827 -0.854764 0.992792
H -1.91145 -1.08759 -0.290341
H -1.33154 1.38181 -0.433019
H 1.3585 1.47368 0.492549
10
-155.869222360     ddt     bullvalene     cope     trial21     runpoint      3     runisomer      1
C 1.0849550 -0.6111635 -0.1160889
C -1.0838258 -0.6335674 0.0945637
C -0.6854503 0.7177906 -0.0603176
C 0.6830672 0.7579896 0.0698971
H 1.8360941 -1.2715934 0.3692854
H 0.9365040 -1.1428298 -1.0472782
H -0.9232238 -0.8588712 1.0121344
H -1.9007904 -1.0732659 -0.2528089
H -1.3080634 1.3739864 -0.4270723
H 1.3743158 1.4908216 0.4871794
10
-155.868146307     ddt     bullvalene     cope     trial21     runpoint      4     runisomer      1
C 1.0785406 -0.5927466 -0.1085635
C -1.0876553 -0.6372175 0.0817232
C -0.6743668 0.7124224 -0.0559439
C 0.6855417 0.7455318 0.0641937
H 1.8274291 -1.2557944 0.3311148
H 0.9109868 -1.1438502 -1.0043662
H -0.9084088 -0.8865498 1.0898556
H -1.9261120 -1.0765217 -0.2374495
H -1.3154339 1.4066206 -0.4385098
H 1.3869147 1.5107976 0.4799008
10
-155.885055393     ddt     bullvalene     cope     trial21     runpoint      5     runisomer      1
C 1.0723600 -0.5758704 -0.1012181
C -1.0886457 -0.6389770 0.0706934
C -0.6631157 0.7059329 -0.0522142
C 0.6893498 0.7333448 0.0594857
H 1.8246101 -1.2308913 0.3035276
H 0.8766281 -1.1421735 -0.9728722
H -0.8884589 -0.9255900 1.1777108
H -1.9841534 -1.0949364 -0.2418995
H -1.3384924 1.4633308 -0.4585519
H 1.3913380 1.5273446 0.4681290
10
-155.887844220     ddt     bullvalene     cope     trial21     runpoint      6     runisomer      1
C 1.0667521 -0.5611713 -0.0943150
C -1.0882092 -0.6402704 0.0632931
C -0.6537432 0.6999664 -0.0500398
C 0.6947812 0.7226531 0.0560333
H 1.8321125 -1.1995679 0.2895239
H 0.8323606 -1.1392900 -0.9553218
H -0.8698262 -0.9677717 1.2457639
H -2.0536590 -1.1172542 -0.2569525
H -1.3593688 1.5232530 -0.4766921
H 1.3851606 1.5364679 0.4508506
10
-155.874602963     ddt     bullvalene     cope     trial21     runpoint      7     runisomer      1
C 1.0621153 -0.5495500 -0.0883276
C -1.0879719 -0.6420960 0.0599645
C -0.6475406 0.6955657 -0.0499155
C 0.7017269 0.7145176 0.0539459
H 1.8520957 -1.1637962 0.2895876
H 0.7793214 -1.1349333 -0.9491929
H -0.8557858 -1.0085624 1.2811170
H -2.1143181 -1.1333705 -0.2745544
H -1.3673741 1.5722523 -0.4866992
H 1.3686801 1.5368987 0.4286054
10
-155.859785699     ddt     bullvalene     cope     trial21     runpoint      8     runisomer      1
C 1.0589228 -0.5420424 -0.0837816
C -1.0890279 -0.6448814 0.0606923
C -0.6450764 0.6931898 -0.0519781
C 0.7096666 0.7096750 0.0531877
H 1.8833526 -1.1242227 0.3015803
H 0.7210307 -1.1276799 -0.9484465
H -0.8477968 -1.0452572 1.2791327
H -2.1540473 -1.1377298 -0.2898764
H -1.3580911 1.6027405 -0.4861019
H 1.3448682 1.5303978 0.4033432
10
-155.854117168     ddt     bullvalene     cope     trial21     runpoint      9     runisomer      1
C 1.0576883 -0.5394740 -0.0810509
C -1.0919811 -0.6486437 0.0652949
C -0.6463864 0.6929028 -0.0561392
C 0.7177272 0.7083188 0.0535687
H 1.9217275 -1.0806692 0.3214769
H 0.6625965 -1.1163638 -0.9463912
H -0.8463068 -1.0760479 1.2390679
H -2.1674695 -1.1282727 -0.3004384
H -1.3309735 1.6113950 -0.4746892
H 1.3192459 1.5220415 0.3782685
10
-155.860769735     ddt     bullvalene     cope     trial21     runpoint      10     runisomer      1
C 1.0588791 -0.5421107 -0.0802432
C -1.0971155 -0.6531071 0.0734156
C -0.6510985 0.6944568 -0.0621434
C 0.7248413 0.7099783 0.0547738
H 1.9617078 -1.0332278 0.3445122
H 0.6094220 -1.1011009 -0.9379272
H -0.8508819 -1.0999572 1.1633664
H -2.1537287 -1.1051735 -0.3052793
H -1.2883692 1.5982497 -0.4538567
H 1.2990338 1.5196122 0.3573021
10
-155.877261703     ddt     bullvalene     cope     trial21     runpoint      11     runisomer      1
C 1.0628552 -0.5494898 -0.0811852
C -1.1044971 -0.6576425 0.0842947
C -0.6584501 0.6972030 -0.0695359
C 0.7300532 0.7137054 0.0564737
H 1.9981571 -0.9830505 0.3661799
H 0.5660075 -1.0835980 -0.9206153
H -0.8595617 -1.1179376 1.0600492
H -2.1159771 -1.0703969 -0.3048319
H -1.2360359 1.5677295 -0.4268850
H 1.2906174 1.5304766 0.3436906
10
-155.893832104     ddt     bullvalene     cope     trial21     runpoint      12     runisomer      1
C 1.0698555 -0.5604835 -0.0834587
C -1.1140322 -0.6609789 0.0963288
C -0.6672248 0.6998465 -0.0775757
C 0.7328852 0.7185844 0.0584824
H 2.0274736 -0.9324589 0.3828703
H 0.5350497 -1.0670292 -0.8949424
H -0.8670444 -1.1361852 0.9484369
H -2.0626770 -1.0279799 -0.3015553
H -1.1846367 1.5315070 -0.3998467
H 1.2959801 1.5564366 0.3382316
10
-155.892574811     ddt     bullvalene     cope     trial21     runpoint      13     runisomer      1
C 1.0800269 -0.5735032 -0.0864636
C -1.1254868 -0.6607792 0.1068590
C -0.6758027 0.7003209 -0.0852164
C 0.7334789 0.7240699 0.0607970
H 2.0481289 -0.8845979 0.3921893
H 0.5168813 -1.0557021 -0.8641170
H -0.8623909 -1.1710058 0.8629147
H -2.0098408 -0.9845281 -0.3011745
H -1.1498175 1.5101858 -0.3817428
H 1.3115391 1.5916327 0.3389265
10
-155.874186609     ddt     bullvalene     cope     trial21     runpoint      14     runisomer      1
C 1.0934279 -0.5867468 -0.0895304
C -1.1381649 -0.6544669 0.1140845
C -0.6827897 0.6967060 -0.0915048
C 0.7323956 0.7298467 0.0634880
H 2.0608536 -0.8429386 0.3931242
H 0.5095268 -1.0544306 -0.8332301
H -0.8340462 -1.2409712 0.8310101
H -1.9801623 -0.9484490 -0.3129852
H -1.1449575 1.5232805 -0.3801881
H 1.3307666 1.6263141 0.3425775
10
-155.875924229     ddt     bullvalene     cope     trial21     runpoint      15     runisomer      1
C 1.1099547 -0.5984846 -0.0921127
C -1.1505825 -0.6421506 0.1197758
C -0.6880343 0.6891682 -0.0962812
C 0.7303222 0.7355666 0.0665812
H 2.0686728 -0.8107847 0.3861342
H 0.5098742 -1.0673735 -0.8074227
H -0.7860490 -1.3380351 0.8368409
H -1.9907569 -0.9257078 -0.3445903
H -1.1689726 1.5677231 -0.3940613
H 1.3474248 1.6517661 0.3464446
10
-155.892993417     ddt     bullvalene     cope     trial21     runpoint      16     runisomer      1
C 1.1291718 -0.6073343 -0.0940056
C -1.1622239 -0.6264079 0.1261903
C -0.6923465 0.6797506 -0.1000364
C 0.7278657 0.7407657 0.0700247
H 2.0766511 -0.7908073 0.3730810
H 0.5158424 -1.0964682 -0.7893918
H -0.7339212 -1.4354362 0.8483578
H -2.0359841 -0.9147500 -0.3921978
H -1.2091442 1.6206226 -0.4154882
H 1.3571407 1.6625929 0.3488621
10
-155.896967337     ddt     bullvalene     cope     trial21     runpoint      17     runisomer      1
C 1.1502536 -0.6124391 -0.0954128
C -1.1741305 -0.6098273 0.1336863
C -0.6964790 0.6704897 -0.1032773
C 0.7254653 0.7448775 0.0736969
H 2.0908729 -0.7846052 0.3566842
H 0.5280304 -1.1403572 -0.7779112
H -0.6899620 -1.5132201 0.8474509
H -2.0944905 -0.9090896 -0.4425910
H -1.2530893 1.6607495 -0.4372777
H 1.3577627 1.6569870 0.3492400
10
-155.887729257     ddt     bullvalene     cope     trial21     runpoint      18     runisomer      1
C 1.1722316 -0.6134891 -0.0967651
C -1.1875231 -0.5941648 0.1417406
C -0.7008108 0.6626886 -0.1063229
C 0.7233567 0.7472352 0.0774167
H 2.1161923 -0.7923147 0.3393063
H 0.5492441 -1.1946536 -0.7687930
H -0.6607647 -1.5614132 0.8279013
H -2.1477140 -0.9029854 -0.4834310
H -1.2927868 1.6761667 -0.4551958
H 1.3494286 1.6365496 0.3479834
10
-155.879100814     ddt     bullvalene     cope     trial21     runpoint      19     runisomer      1
C 1.1944165 -0.6106188 -0.0984121
C -1.2031414 -0.5804850 0.1497980
C -0.7054787 0.6570317 -0.1093531
C 0.7215624 0.7470496 0.0809532
H 2.1535086 -0.8123009 0.3216382
H 0.5824577 -1.2533440 -0.7572444
H -0.6493918 -1.5758292 0.7889348
H -2.1853367 -0.8930212 -0.5071866
H -1.3235890 1.6621245 -0.4671873
H 1.3347292 1.6062751 0.3464796
10
-155.880790072     ddt     bullvalene     cope     trial21     runpoint      20     runisomer      1
C 1.2166412 -0.6042806 -0.1004520
C -1.2212548 -0.5693701 0.1574278
C -0.7105144 0.6537359 -0.1124501
C 0.7198909 0.7434313 0.0840279
H 2.1988805 -0.8410685 0.3024832
H 0.6290407 -1.3103368 -0.7396666
H -0.6569854 -1.5553933 0.7321235
H -2.2032722 -0.8775243 -0.5102427
H -1.3430217 1.6185485 -0.4725839
H 1.3186413 1.5742525 0.3470431
10
-155.894930489     ddt     bullvalene     cope     trial21     runpoint      21     runisomer      1
C 1.2391669 -0.5951181 -0.1027726
C -1.2417936 -0.5609569 0.1642616
C -0.7158927 0.6525562 -0.1155883
C 0.7180532 0.7355471 0.0863600
H 2.2455662 -0.8736228 0.2799208
H 0.6880470 -1.3605997 -0.7143184
H -0.6830465 -1.5018720 0.6607263
H -2.2016179 -0.8559782 -0.4916812
H -1.3506379 1.5494756 -0.4719995
H 1.3072424 1.5497687 0.3523906
10
-155.917829890     ddt     bullvalene     cope     trial21     runpoint      22     runisomer      1
C 1.2624183 -0.5838460 -0.1051749
C -1.2644727 -0.5547385 0.1698920
C -0.7214555 0.6526602 -0.1185635
C 0.7159173 0.7230029 0.0877705
H 2.2871668 -0.9042492 0.2526890
H 0.7562895 -1.4008469 -0.6812499
H -0.7240058 -1.4222850 0.5806507
H -2.1843926 -0.8289265 -0.4531562
H -1.3491999 1.4644234 -0.4680004
H 1.3045335 1.5389632 0.3643257
10
-155.937504046     ddt     bullvalene     cope     trial21     runpoint      23     runisomer      1
C 1.2867785 -0.5711565 -0.1074612
C -1.2890113 -0.5490738 0.1737953
C -0.7266909 0.6524854 -0.1208880
C 0.7137428 0.7061807 0.0882957
H 2.3197220 -0.9273761 0.2208308
H 0.8288114 -1.4298876 -0.6419887
H -0.7691806 -1.3348347 0.5026375
H -2.1610993 -0.7983439 -0.3999887
H -1.3470172 1.3805225 -0.4663934
H 1.3094721 1.5408677 0.3823531
10
-155.934244451     ddt     bullvalene     cope     trial21     runpoint      24     runisomer      1
C 1.3124947 -0.5576578 -0.1094853
C -1.3153800 -0.5407611 0.1754563
C -0.7306646 0.6499992 -0.1218008
C 0.7120888 0.6861408 0.0881665
H 2.3424559 -0.9382495 0.1856656
H 0.8996357 -1.4486099 -0.5991349
H -0.7960503 -1.2744070 0.4428147
H -2.1491996 -0.7681887 -0.3426757
H -1.3580672 1.3204778 -0.4762633
H 1.3167131 1.5484520 0.4038023
10
-155.913211134     ddt     bullvalene     cope     trial21     runpoint      25     runisomer      1
C 1.3396343 -0.5438532 -0.1111862
C -1.3430589 -0.5268500 0.1751469
C -0.7328163 0.6439889 -0.1208057
C 0.7115082 0.6641921 0.0876882
H 2.3577781 -0.9334262 0.1494552
H 0.9628269 -1.4594984 -0.5558535
H -0.7821574 -1.2730408 0.4124434
H -2.1724401 -0.7438768 -0.2951507
H -1.3916350 1.2989067 -0.5041397
H 1.3200646 1.5533295 0.4252707
10
-155.917551208     ddt     bullvalene     cope     trial21     runpoint      26     runisomer      1
C 1.3680603 -0.5301653 -0.1126134
C -1.3697593 -0.5085822 0.1741999
C -0.7339952 0.6352134 -0.1183666
C 0.7123437 0.6415589 0.0871367
H 2.3709343 -0.9111609 0.1149611
H 1.0135986 -1.4656654 -0.5151744
H -0.7375988 -1.3178714 0.4047787
H -2.2449908 -0.7284757 -0.2645388
H -1.4389918 1.3097957 -0.5460391
H 1.3150167 1.5492897 0.4438537
10
-155.937439807     ddt     bullvalene     cope     trial21     runpoint      27     runisomer      1
C 1.3974062 -0.5169899 -0.1139266
C -1.3941430 -0.4896800 0.1732189
C -0.7357028 0.6254277 -0.1155471
C 0.7146587 0.6192587 0.0867195
H 2.3892192 -0.8715986 0.0848913
H 1.0491759 -1.4696177 -0.4792123
H -0.6911703 -1.3743388 0.4076539
H -2.3533592 -0.7187392 -0.2431106
H -1.4816929 1.3369357 -0.5912895
H 1.2994826 1.5334053 0.4576569
10
-155.940725265     ddt     bullvalene     cope     trial21     runpoint      28     runisomer      1
C 1.4271351 -0.5047692 -0.1153580
C -1.4169979 -0.4730565 0.1720034
C -0.7389024 0.6161197 -0.1132779
C 0.7182191 0.5980585 0.0865543
H 2.4201780 -0.8164199 0.0612293
H 1.0693346 -1.4722612 -0.4487364
H -0.6626015 -1.4201677 0.4140218
H -2.4694460 -0.7085444 -0.2187658
H -1.5056892 1.3672211 -0.6306277
H 1.2737315 1.5060748 0.4659682
10
-155.929935081     ddt     bullvalene     cope     trial21     runpoint      29     runisomer      1
C 1.4567705 -0.4940428 -0.1171227
C -1.4395630 -0.4603144 0.1704243
C -0.7438573 0.6082247 -0.1121526
C 0.7225146 0.5784216 0.0866545
H 2.4683219 -0.7477974 0.0446157
H 1.0764921 -1.4727312 -0.4233466
H -0.6609083 -1.4455943 0.4207942
H -2.5708967 -0.6935718 -0.1847362
H -1.5040692 1.3929873 -0.6584195
H 1.2402335 1.4710421 0.4694163
10
-155.920534280     ddt     bullvalene     cope     trial21     runpoint      30     runisomer      1
C 1.4861920 -0.4853984 -0.1193381
C -1.4626897 -0.4521536 0.1685758
C -0.7504158 0.6022179 -0.1124859
C 0.7268226 0.5604415 0.0869148
H 2.5317160 -0.6675146 0.0341370
H 1.0751499 -1.4692231 -0.4021185
H -0.6892746 -1.4472084 0.4266605
H -2.6451283 -0.6719329 -0.1393807
H -1.4748832 1.4103710 -0.6718381
H 1.2034413 1.4354180 0.4701293
10
-155.921011101     ddt     bullvalene     cope     trial21     runpoint      31     runisomer      1
C 1.5157001 -0.4792499 -0.1219870
C -1.4867873 -0.4486797 0.1666446
C -0.7582329 0.5981771 -0.1143729
C 0.7303425 0.5438541 0.0871134
H 2.6018052 -0.5774566 0.0277994
H 1.0708406 -1.4602944 -0.3842701
H -0.7478732 -1.4247600 0.4311308
H -2.6865024 -0.6433139 -0.0837879
H -1.4194456 1.4181485 -0.6700677
H 1.1689369 1.4086972 0.4714455
10
-155.932182808     ddt     bullvalene     cope     trial21     runpoint      32     runisomer      1
C 1.5457451 -0.4755997 -0.1249480
C -1.5119465 -0.4494618 0.1648004
C -0.7668371 0.5957562 -0.1176833
C 0.7324416 0.5282676 0.0870233
H 2.6672647 -0.4807708 0.0233909
H 1.0689798 -1.4459173 -0.3695425
H -0.8343138 -1.3807665 0.4344268
H -2.6942112 -0.6083370 -0.0204075
H -1.3420201 1.4178734 -0.6543509
H 1.1413557 1.3992458 0.4764535
10
-155.950065955     ddt     bullvalene     cope     trial21     runpoint      33     runisomer      1
C 1.5766166 -0.4739553 -0.1280357
C -1.5381000 -0.4533762 0.1630988
C -0.7755775 0.5940688 -0.1219848
C 0.7329014 0.5135678 0.0865951
H 2.7183687 -0.3821044 0.0191112
H 1.0740112 -1.4279009 -0.3582530
H -0.9420437 -1.3227055 0.4381863
H -2.6724674 -0.5682714 0.0474189
H -1.2503731 1.4153198 -0.6288453
H 1.1219835 1.4091822 0.4857002
10
-155.963025389     ddt     bullvalene     cope     trial21     runpoint      34     runisomer      1
C 1.6083023 -0.4734285 -0.1310361
C -1.5651539 -0.4582219 0.1613146
C -0.7835953 0.5915871 -0.1264898
C 0.7319492 0.5000550 0.0860170
H 2.7492073 -0.2868312 0.0137674
H 1.0889669 -1.4096479 -0.3511335
H -1.0569389 -1.2681196 0.4473352
H -2.6330672 -0.5247882 0.1157246
H -1.1555889 1.4220880 -0.6013218
H 1.1085501 1.4327588 0.4964417
